test/data/spanish_feeders/Feeder_2.dss
clear
new circuit.feeder2
edit Vsource.Source bus1=31 basekv=0.42 pu=1 phases=3 ISC3=9000  ISC1=5000
! edit Vsource.Source bus1=source basekv=22 pu=1.0001 phases=3 ISC3=9000  ISC1=5000 ! only uncomment if you want to include the transfomer
!-- Linecodes ------------------------------------------------------------------------------------------------------
redirect linecode.txt
!-- Loadshapes ------------------------------------------------------------------------------------------------------
redirect Loadshape.txt
! -TRFRMS-----------------------------------------------------------------------------------------------------------------
! The transformer is commented out for an LV feeder analysis. You can uncomment but uncomment the Vsource line above
! New line.mv Bus1=sourcebus.1.2.3 Bus2=1.1.2.3 phases=3 Linecode=101 Length=5 Units=m
! New Transformer.td401346 windings=2 Buses=[1 31.1.2.3.4] Conns=[DELTA WYE] kVs=[22.0 0.42] kVAs=[630.0 630.0] XHL=4.0 phases=3 sub=y 
New Reactor.Yngrnd phases=1 bus1=31.4 bus2=31.0 R=5 X=0.01 
! -LINES-----------------------------------------------------------------------------------------------------------------
New Line.feeder2 Bus1=31.1.2.3.4 Bus2=31_2.1.2.3.4 phases=4 linecode=205 Length=3.678 Units=m
New Line.1230_0 Bus1=2685.1.2.3.4 Bus2=1230_1.1.2.3.4 phases=4 linecode=216 Length=11.266 Units=m
New Line.1230_11 Bus1=1230_11.1.2.3.4 Bus2=1230_12.1.2.3.4 phases=4 linecode=216 Length=0.547 Units=m
New Line.1230_7 Bus1=1230_7.1.2.3.4 Bus2=1230_8.1.2.3.4 phases=4 linecode=216 Length=0.41 Units=m
New Line.1230 Bus1=1230_13.1.2.3.4 Bus2=1230.1.2.3.4 phases=4 linecode=216 Length=0.322 Units=m
New Line.1230_6 Bus1=1230_6.1.2.3.4 Bus2=1230_7.1.2.3.4 phases=4 linecode=216 Length=0.417 Units=m
New Line.1230_5 Bus1=1230_5.1.2.3.4 Bus2=1230_6.1.2.3.4 phases=4 linecode=216 Length=0.412 Units=m
New Line.1230_8 Bus1=1230_8.1.2.3.4 Bus2=1230_9.1.2.3.4 phases=4 linecode=216 Length=0.3 Units=m
New Line.1230_10 Bus1=1230_10.1.2.3.4 Bus2=1230_11.1.2.3.4 phases=4 linecode=216 Length=5.224 Units=m
New Line.1230_12 Bus1=1230_12.1.2.3.4 Bus2=1230_13.1.2.3.4 phases=4 linecode=216 Length=0.965 Units=m
New Line.1230_9 Bus1=1230_9.1.2.3.4 Bus2=1230_10.1.2.3.4 phases=4 linecode=216 Length=0.19 Units=m
New Line.1230_1 Bus1=1230_1.1.2.3.4 Bus2=1230_2.1.2.3.4 phases=4 linecode=216 Length=0.383 Units=m
New Line.1230_2 Bus1=1230_2.1.2.3.4 Bus2=1230_3.1.2.3.4 phases=4 linecode=216 Length=0.446 Units=m
New Line.1230_3 Bus1=1230_3.1.2.3.4 Bus2=1230_4.1.2.3.4 phases=4 linecode=216 Length=0.403 Units=m
New Line.1230_4 Bus1=1230_4.1.2.3.4 Bus2=1230_5.1.2.3.4 phases=4 linecode=216 Length=0.595 Units=m
New Line.mv1 Bus1=source.1.2.3 Bus2=1.1.2.3 phases=3 linecode=101 Length=5.0 Units=m
New Line.cktbk2 Bus1=31_2.1.2.3.4 Bus2=2685.1.2.3.4 phases=4 linecode=102 Length=0.5 Units=m
! --LOADS-----------------------------------------------------------------------------------------------------------
! --PF -----------------------------------------------------------------------------------------------------------
    set mode=Daily number=481 stepsize=60m
    Calcvoltagebases
    solve
    BusCoords Buscord_indexed.txt
    Plot circuit Power Max=1000 dots=n labels=n subs=y C1=black 1ph=3
    
